Version 4
SHEET 1 880 680
WIRE 384 16 240 16
WIRE 240 64 240 16
WIRE 240 112 240 80
WIRE 384 112 384 96
WIRE 192 144 128 144
WIRE 128 192 128 144
WIRE 128 192 32 192
WIRE 240 192 240 160
WIRE 336 192 240 192
WIRE 240 224 240 192
WIRE 128 304 128 192
WIRE 192 304 128 304
WIRE 240 304 240 272
WIRE 240 352 240 320
FLAG 384 112 0
FLAG 336 192 Voutput
IOPIN 336 192 Out
FLAG 32 272 0
FLAG 240 352 0
SYMBOL pmos4 192 64 R0
SYMATTR InstName M2
SYMATTR Value PM1
SYMBOL voltage 384 0 R0
WINDOW 123 0 0 Left 0
WINDOW 39 0 0 Left 0
SYMATTR InstName V1
SYMATTR Value 2
SYMBOL voltage 32 176 R0
WINDOW 123 0 0 Left 0
WINDOW 39 0 0 Left 0
SYMATTR InstName V2
SYMATTR Value 1V
SYMBOL nmos4 192 224 R0
SYMATTR InstName M1
SYMATTR Value NM1
TEXT -120 408 Left 2 !.MODEL NM1 NMOS (KP=441E-6 VT0=0.49 W=0.75847u L=0.15E-6)
TEXT -120 440 Left 2 !.MODEL PM1 PMOS (KP=133E-6 VT0=-0.49 W=2.5149u L=0.15E-6)
TEXT -120 368 Left 2 !.dc V2 -3 3 0.1
